powerfactory/powerfactory-converter/src/test/resources/Transformer-VhVl-GB-Non-Neutral-proportion.xiidm
<?xml version="1.0" encoding="UTF-8"?>
<iidm:network xmlns:iidm="http://www.powsybl.org/schema/iidm/1_18" id="Transformer-VhVl-GB-Non-Neutral-proportion" caseDate="2021-01-01T10:00:00.000+02:00" forecastDistance="0" sourceFormat="POWER-FACTORY" minimumValidationLevel="STEADY_STATE_HYPOTHESIS">
    <iidm:substation id="S8">
        <iidm:voltageLevel id="VL8" nominalV="220.0" topologyKind="NODE_BREAKER">
            <iidm:nodeBreakerTopology>
                <iidm:busbarSection id="VL8_1 Bus 1-Slack" node="0"/>
                <iidm:switch id="VL8_Switch" kind="BREAKER" open="false" node1="0" node2="1"/>
                <iidm:switch id="VL8_Switch#0" kind="BREAKER" open="false" node1="0" node2="2"/>
                <iidm:bus v="233.19998168945312" angle="0.0" nodes="0,1,2"/>
            </iidm:nodeBreakerTopology>
            <iidm:generator id="sym_1_1" energySource="OTHER" minP="0.0" maxP="50.540000915527344" targetP="50.540000915527344" localTargetV="233.19998741149902" localTargetQ="0.0" node="2">
                <iidm:minMaxReactiveLimits minQ="0.0" maxQ="0.0"/>
                <iidm:voltageRegulation mode="VOLTAGE" regulating="true"/>
            </iidm:generator>
        </iidm:voltageLevel>
    </iidm:substation>
    <iidm:substation id="S9">
        <iidm:voltageLevel id="VL9" nominalV="220.0" topologyKind="NODE_BREAKER">
            <iidm:nodeBreakerTopology>
                <iidm:busbarSection id="VL9_2 Bus 2" node="0"/>
                <iidm:switch id="VL9_Switch" kind="BREAKER" open="false" node1="0" node2="1"/>
                <iidm:switch id="VL9_Switch#0" kind="BREAKER" open="false" node1="0" node2="2"/>
                <iidm:bus v="228.96177673339844" angle="-1.367474913597107" nodes="0,1,2"/>
            </iidm:nodeBreakerTopology>
        </iidm:voltageLevel>
        <iidm:voltageLevel id="VL10" nominalV="110.0" topologyKind="NODE_BREAKER">
            <iidm:nodeBreakerTopology>
                <iidm:busbarSection id="VL10_3 Bus 2-Load" node="0"/>
                <iidm:switch id="VL10_Switch" kind="BREAKER" open="false" node1="0" node2="1"/>
                <iidm:switch id="VL10_Switch#0" kind="BREAKER" open="false" node1="0" node2="2"/>
                <iidm:bus v="118.12033081054688" angle="-3.5520355701446533" nodes="0,1,2"/>
            </iidm:nodeBreakerTopology>
            <iidm:load id="lod_3_1" loadType="UNDEFINED" p0="50.0" q0="25.0" node="1"/>
        </iidm:voltageLevel>
        <iidm:twoWindingsTransformer id="trf_2_3_1" r="0.20391181633482833" x="11.013560495822835" g="1.6189272651623288E-8" b="-5.644121253326473E-4" ratedU1="208.15960693359375" ratedU2="110.0" ratedS="180.0" node1="2" voltageLevelId1="VL9" node2="2" voltageLevelId2="VL10">
            <iidm:ratioTapChanger tapPosition="14" loadTapChangingCapabilities="false">
                <iidm:step rho="1.2197485036451494"/>
                <iidm:step rho="1.2008988096135902"/>
                <iidm:step rho="1.1826228463782649"/>
                <iidm:step rho="1.1648948125122431"/>
                <iidm:step rho="1.1476904308381386"/>
                <iidm:step rho="1.13098683750776"/>
                <iidm:step rho="1.114762480628884"/>
                <iidm:step rho="1.0989970274940113"/>
                <iidm:step rho="1.0836712795714112"/>
                <iidm:step rho="1.0687670945111498"/>
                <iidm:step rho="1.0542673144999037"/>
                <iidm:step rho="1.0401557003696962"/>
                <iidm:step rho="1.0264168709285602"/>
                <iidm:step rho="1.0130362470366006"/>
                <iidm:step rho="1.0"/>
                <iidm:step rho="0.9872950038989441"/>
                <iidm:step rho="0.9749087915040008"/>
                <iidm:step rho="0.9628295134697156"/>
                <iidm:step rho="0.9510459005246708"/>
                <iidm:step rho="0.9395472284044012"/>
                <iidm:step rho="0.9283232852978043"/>
                <iidm:step rho="0.9173643415993404"/>
                <iidm:step rho="0.9066611217787027"/>
            </iidm:ratioTapChanger>
        </iidm:twoWindingsTransformer>
    </iidm:substation>
    <iidm:line id="lne_1_2_1" r="9.379916191101074" x="28.638273239135742" b1="3.5752053070068355E-4" b2="3.5752053070068355E-4" node1="1" voltageLevelId1="VL8" node2="1" voltageLevelId2="VL9"/>
</iidm:network>
